Circuit: * Z:\media\joshua\Data\Daten\Develop\Projekte\walking-robot\motorDriver\hardware\simulation\powerStage.asc

Vcc1: both pins shorted together -- ignoring.
WARNING: Node NC_02 is floating.
WARNING: Node NC_04 is floating.
WARNING: Node NC_05 is floating.
WARNING: Node NC_06 is floating.

WARNING: Less than two connections to node N007.  This node is used by R_MOTOR.
WARNING: Less than two connections to node NC_01.  This node is used by D4.
WARNING: Less than two connections to node NC_02.  This node is used by D4.
WARNING: Less than two connections to node NC_03.  This node is used by M1.
WARNING: Less than two connections to node NC_05.  This node is used by M1.
Instance "m:u1:lowside:2": Length shorter than recommended for a level 1 MOSFET.
Instance "m:u1:lowside:1": Length shorter than recommended for a level 1 MOSFET.
Instance "m:u1:highside:2": Length shorter than recommended for a level 1 MOSFET.
Instance "m:u1:highside:1": Length shorter than recommended for a level 1 MOSFET.
u1:deadtimer:vdummy: Missing value, assumed 0V @ DC
Direct Newton iteration for .op point succeeded.
Changing Tseed to 1.5e-014
Heightened Def Con from 5.03747e-006 to 5.03747e-006
Heightened Def Con from 5.03747e-006 to 5.03752e-006
Heightened Def Con from 6.04665e-006 to 6.04665e-006
Heightened Def Con from 6.04665e-006 to 6.0474e-006
Heightened Def Con from 2.50375e-005 to 2.50375e-005
Heightened Def Con from 2.50375e-005 to 2.50375e-005
Heightened Def Con from 2.60466e-005 +to 2.60473e-005

Date: Mon Jan 24 19:44:32 2022
Total elapsed time: 3.768 seconds.

tnom = 27
temp = 27
method = modified trap
totiter = 394281
traniter = 394246
tranpoints = 183906
accept = 183729
rejected = 184
matrix size = 88
fillins = 62
solver = Normal
Matrix Compiler1: 6.58 KB object code size  1.1/0.6/[0.3]
Matrix Compiler2: 7.18 KB object code size  0.5/0.9/[0.3]

